LTspice 24.1.8 for Windows
Circuit: C:\Users\Snoozer\Desktop\LTSpice Sims\PID.net
Start Time: Mon May 12 18:45:27 2025
solver = Normal
Maximum thread count: 6
tnom = 27
temp = 27
method = trap
Laplace(B1): Window=4 Nfft=32768
C:\Users\Snoozer\Desktop\LTSpice Sims\PID.net(4): Limiting fall time to 3.88578e-17.

V1 Vi 0 PULSE(0 5 0 .2 0 0 .2) AC 1
^^^^^^^^^^^^^^^^^^^^^^^^^^^^^^^^^^^
Direct Newton iteration for .op point succeeded.
Total elapsed time: 0.442 seconds.

Files loaded:
C:\Users\Snoozer\Desktop\LTSpice Sims\PID.net
C:\Users\Snoozer\AppData\Local\LTspice\lib\sub\UniversalOpAmp2.lib

